9

O 1.2948975333 -1.0824655356 -0.1226659383
H 1.1339298150 -0.1308894691 -0.0915801347
H 1.9124838417 -1.2673720503 0.5869372358
O 0.1733378377 1.6306190187 -0.2566846622
H 0.2108295927 2.1057801602 -1.0902909804
H 0.1134753998 2.3024448511 0.4265087231
O -1.6876171722 -0.8684127028 0.1335451813
H -1.4498657048 0.0441847766 -0.0498069795
H -0.8394721432 -1.3248690487 0.0886185550
